REMARK  Name = donepezil.pdb
REMARK  8 active torsions:
REMARK  status: ('A' for Active; 'I' for Inactive)
REMARK    1  A    between atoms: O_2  and  C_20
REMARK    2  A    between atoms: O_2  and  C_27
REMARK    3  A    between atoms: O_3  and  C_21
REMARK    4  A    between atoms: O_3  and  C_28
REMARK    5  A    between atoms: N_4  and  C_16
REMARK    6  A    between atoms: C_5  and  C_6
REMARK    7  A    between atoms: C_6  and  C_7
REMARK    8  A    between atoms: C_16  and  C_19
REMARK                            x       y       z     vdW  Elec       q    Type
REMARK                         _______ _______ _______ _____ _____    ______ ____
ROOT
ATOM      1  C   UNL     1      -3.103   1.378  -1.204  0.00  0.00    +0.000 C 
ENDROOT
BRANCH   1   3
ATOM      2  O   UNL     1      -1.142   3.415  -0.639  0.00  0.00    +0.000 OA
ATOM      3  C   UNL     1      -3.412   2.867  -1.427  0.00  0.00    +0.000 C 
ATOM      4  C   UNL     1      -3.945   3.347  -2.807  0.00  0.00    +0.000 C 
ATOM      5  C   UNL     1      -2.137   3.680  -1.290  0.00  0.00    +0.000 C 
ATOM      6  C   UNL     1      -3.322   4.714  -2.971  0.00  0.00    +0.000 A 
ATOM      7  C   UNL     1      -2.273   4.891  -2.078  0.00  0.00    +0.000 A 
ATOM      8  C   UNL     1      -3.579   5.739  -3.870  0.00  0.00    +0.000 A 
ATOM      9  C   UNL     1      -1.522   6.047  -1.970  0.00  0.00    +0.000 A 
ATOM     10  C   UNL     1      -2.806   6.932  -3.830  0.00  0.00    +0.000 A 
ATOM     11  C   UNL     1      -1.795   7.100  -2.845  0.00  0.00    +0.000 A 
BRANCH  11  12
ATOM     12  O   UNL     1      -1.124   8.295  -2.782  0.00  0.00    +0.000 OA
ATOM     13  C   UNL     1      -0.109   8.447  -1.796  0.00  0.00    +0.000 C 
ENDBRANCH  11  12
BRANCH  10  14
ATOM     14  O   UNL     1      -3.167   7.829  -4.810  0.00  0.00    +0.000 OA
ATOM     15  C   UNL     1      -2.341   8.967  -5.034  0.00  0.00    +0.000 C 
ENDBRANCH  10  14
ENDBRANCH   1   3
BRANCH   1  17
ATOM     16  N   UNL     1      -4.261  -0.855   1.600  0.00  0.00    +0.000 NA
ATOM     17  C   UNL     1      -4.277   0.373  -1.153  0.00  0.00    +0.000 C 
ATOM     18  C   UNL     1      -5.348   0.664  -0.095  0.00  0.00    +0.000 C 
ATOM     19  C   UNL     1      -3.763  -1.055  -0.866  0.00  0.00    +0.000 C 
ATOM     20  C   UNL     1      -4.848   0.472   1.345  0.00  0.00    +0.000 C 
ATOM     21  C   UNL     1      -3.270  -1.234   0.577  0.00  0.00    +0.000 C 
BRANCH  16  22
ATOM     22  C   UNL     1      -3.603  -0.893   2.932  0.00  0.00    +0.000 C 
BRANCH  22  23
ATOM     23  C   UNL     1      -4.526  -0.728   4.121  0.00  0.00    +0.000 A 
ATOM     24  C   UNL     1      -5.571  -1.635   4.353  0.00  0.00    +0.000 A 
ATOM     25  C   UNL     1      -4.307   0.300   5.060  0.00  0.00    +0.000 A 
ATOM     26  C   UNL     1      -6.387  -1.506   5.477  0.00  0.00    +0.000 A 
ATOM     27  C   UNL     1      -5.123   0.421   6.187  0.00  0.00    +0.000 A 
ATOM     28  C   UNL     1      -6.164  -0.480   6.393  0.00  0.00    +0.000 A 
ENDBRANCH  22  23
ENDBRANCH  16  22
ENDBRANCH   1  17
TORSDOF 6
